/*--------------------------------*- C++ -*----------------------------------*\
| =========                 |                                                 |
| \\      /  F ield         | OpenFOAM: The Open Source CFD Toolbox           |
|  \\    /   O peration     | Version:  2.3.0                                 |
|   \\  /    A nd           | Web:      www.OpenFOAM.org                      |
|    \\/     M anipulation  |                                                 |
\*---------------------------------------------------------------------------*/
FoamFile
{
    version     2.0;
    format      ascii;
    class       dictionary;
    location    "system";
    object      fvSolution;
}
// * * * * * * * * * * * * * * * * * * * * * * * * * * * * * * * * * * * * * //

solvers
{
    p
    {
        solver          GAMG;
        tolerance       1e-05;
        relTol          0.05;
        smoother        GaussSeidel;
        nPreSweeps      0;
        nPostSweeps     2;
        cacheAgglomeration on;
        agglomerator    faceAreaPair;
        nCellsInCoarsestLevel 10;
        minIter         3;
        mergeLevels     1;
    }
    
    pFinal	
    {
	solver GAMG;
	tolerance 1e-06;
	relTol 0.0;
	smoother GaussSeidel;
	nPreSweeps 0;
	nPostSweeps 2;
	cacheAgglomeration on;
	agglomerator faceAreaPair;
	nCellsInCoarsestLevel 1000;
      	mergeLevels 1;
    }
    
    "(U|k|epsilon|R|nuTilda)"
    {
        solver          smoothSolver;
        smoother        symGaussSeidel;
        tolerance       1e-08;
        relTol          0.001;
    }
}

SIMPLE
{
    nNonOrthogonalCorrectors 3;

    residualControl
    {
        p               1e-2;//1e-2;
        U               1e-3;//1e-3;
        "(k|epsilon|omega)" 1e-3;
    }
}

relaxationFactors
{
    fields
    {
        p               0.3;
    }
    equations
    {
        U               0.7;
        k               0.7;
        epsilon         0.7;
        R               0.7;
        nuTilda         0.7;
    }
}


// ************************************************************************* //
