/*--------------------------------*- C++ -*----------------------------------*\
| =========                 |                                                 |
| \\      /  F ield         | OpenFOAM: The Open Source CFD Toolbox           |
|  \\    /   O peration     | Version:  2.4.0                                 |
|   \\  /    A nd           | Web:      www.OpenFOAM.org                      |
|    \\/     M anipulation  |                                                 |
\*---------------------------------------------------------------------------*/
FoamFile
{
    version     2.0;
    format      ascii;
    class       dictionary;
    location    "constant";
    object      porosityProperties;
}
// * * * * * * * * * * * * * * * * * * * * * * * * * * * * * * * * * * * * * //

porosity1
{
    type            DarcyForchheimer;
    //type            powerLaw; //-rhoCo u^(C1-1)/2
    active          yes;
    cellZone        porousZone;

    DarcyForchheimerCoeffs
    {
	coordinateSystem
        {
		type 	cartesian; 		
		origin 	(0 0 0); 
		coordinateRotation
		{              
			type 	axesRotation;			
			e1      (1 0 0);
        		e2      (0 1 0);
		}
        }      	
	
	d   d [0 -2 0 0 0 0 0] (-1000 -1000 1.618e8);
        //f   f [0 -1 0 0 0 0 0] (0 0 0);
    }
}


// ************************************************************************* //
