/*--------------------------------*- C++ -*----------------------------------*\
| =========                 |                                                 |
| \\      /  F ield         | OpenFOAM: The Open Source CFD Toolbox           |
|  \\    /   O peration     | Version:  2.3.0                                 |
|   \\  /    A nd           | Web:      www.OpenFOAM.org                      |
|    \\/     M anipulation  |                                                 |
\*---------------------------------------------------------------------------*/
FoamFile
{
    version     2.0;
    format      ascii;
    class       dictionary;
    location    "system";
    object      sampleDict;
}
// * * * * * * * * * * * * * * * * * * * * * * * * * * * * * * * * * * * * * //

setFormat raw;

surfaceFormat foamFile;

interpolationScheme cellPointFace;

fields
(
    U
);

sets
(
/*    axial_profile
    {
        type        uniform; //midPoint;
        axis        distance;
	nPoints	    100;
        start       (0 0 0);
        end         (0.7 0 0);
    }
*/
    radial_profile1
    {
        type        face;
        axis        distance;

        start       (0.65 -0.025  -0.025);
        end         (0.65 0  0);
    }

);

surfaces
(
);



/*interpolationScheme cellPoint;

setFormat       raw;

sets
(
    leftPatch
    {
        type    uniform;
        axis    y;
        start   ( 0 0.5 0.25 );
        end     ( 0 2 0.25 );
        nPoints 100;
    }
);

fields          ( sigmaxx );
*/


// ************************************************************************* //
