/*--------------------------------*- C++ -*----------------------------------*\
| =========                 |                                                 |
| \\      /  F ield         | OpenFOAM: The Open Source CFD Toolbox           |
|  \\    /   O peration     | Version:  2.3.0                                 |
|   \\  /    A nd           | Web:      www.OpenFOAM.org                      |
|    \\/     M anipulation  |                                                 |
\*---------------------------------------------------------------------------*/
FoamFile
{
    version     2.0;
    format      ascii;
    class       volVectorField;
    object      U;
}
// * * * * * * * * * * * * * * * * * * * * * * * * * * * * * * * * * * * * * //

dimensions      [0 1 -1 0 0 0 0];

internalField   uniform (0 0 0);

boundaryField
{
    fixedWall
    {
        type            fixedValue;
        value           uniform (0 0 0);
    }
    /*inlet
    {
	type 		codedFixedValue;
	value 		$internalField;
	redirectType 	ramp;
	code
	#{
	scalar U_0=0.001;
	scalar r=0.0257;
	fixedValueFvPatchVectorField myPatch(*this);
	forAll(this->patch().Cf(),i)
	{
	myPatch[i]=vector(2*U_0*(1-pow(this->patch().Cf()[i].x(),2)/pow(r,2)),0,0);
	}
	operator==(myPatch);
	#};
    }*/
    inlet
    {
        type            fixedValue;
        value           uniform (0 0 0.006);
    }
    
    outlet
    {
        
        type            zeroGradient;
    }
}

// ************************************************************************* //
